*SPEF "ieee 1481-1999"
*DESIGN "user_project_wrapper"
*DATE "11:11:11 Fri 11 11, 1111"
*VENDOR "OpenRCX"
*PROGRAM "Parallel Extraction"
*VERSION "1.0"
*DESIGN_FLOW "NAME_SCOPE LOCAL" "PIN_CAP NONE"
*DIVIDER /
*DELIMITER :
*BUS_DELIMITER []
*T_UNIT 1 NS
*C_UNIT 1 PF
*R_UNIT 1 OHM
*L_UNIT 1 HENRY

*NAME_MAP
*1 io_in[0]
*2 io_in[10]
*3 io_in[11]
*4 io_in[12]
*5 io_in[13]
*6 io_in[14]
*7 io_in[15]
*8 io_in[16]
*9 io_in[17]
*10 io_in[18]
*11 io_in[19]
*12 io_in[1]
*13 io_in[20]
*14 io_in[21]
*15 io_in[22]
*16 io_in[23]
*17 io_in[24]
*18 io_in[25]
*19 io_in[26]
*20 io_in[27]
*21 io_in[28]
*22 io_in[29]
*23 io_in[2]
*24 io_in[30]
*25 io_in[31]
*26 io_in[32]
*27 io_in[33]
*28 io_in[34]
*29 io_in[35]
*30 io_in[36]
*31 io_in[37]
*32 io_in[3]
*33 io_in[4]
*34 io_in[5]
*35 io_in[6]
*36 io_in[7]
*37 io_in[8]
*38 io_in[9]
*39 io_oeb[0]
*40 io_oeb[10]
*41 io_oeb[11]
*42 io_oeb[12]
*43 io_oeb[13]
*44 io_oeb[14]
*45 io_oeb[15]
*46 io_oeb[16]
*47 io_oeb[17]
*48 io_oeb[18]
*49 io_oeb[19]
*50 io_oeb[1]
*51 io_oeb[20]
*52 io_oeb[21]
*53 io_oeb[22]
*54 io_oeb[23]
*55 io_oeb[24]
*56 io_oeb[25]
*57 io_oeb[26]
*58 io_oeb[27]
*59 io_oeb[28]
*60 io_oeb[29]
*61 io_oeb[2]
*62 io_oeb[30]
*63 io_oeb[31]
*64 io_oeb[32]
*65 io_oeb[33]
*66 io_oeb[34]
*67 io_oeb[35]
*68 io_oeb[36]
*69 io_oeb[37]
*70 io_oeb[3]
*71 io_oeb[4]
*72 io_oeb[5]
*73 io_oeb[6]
*74 io_oeb[7]
*75 io_oeb[8]
*76 io_oeb[9]
*77 io_out[0]
*78 io_out[10]
*79 io_out[11]
*80 io_out[12]
*81 io_out[13]
*82 io_out[14]
*83 io_out[15]
*84 io_out[16]
*85 io_out[17]
*86 io_out[18]
*87 io_out[19]
*88 io_out[1]
*89 io_out[20]
*90 io_out[21]
*91 io_out[22]
*92 io_out[23]
*93 io_out[24]
*94 io_out[25]
*95 io_out[26]
*96 io_out[27]
*97 io_out[28]
*98 io_out[29]
*99 io_out[2]
*100 io_out[30]
*101 io_out[31]
*102 io_out[32]
*103 io_out[33]
*104 io_out[34]
*105 io_out[35]
*106 io_out[36]
*107 io_out[37]
*108 io_out[3]
*109 io_out[4]
*110 io_out[5]
*111 io_out[6]
*112 io_out[7]
*113 io_out[8]
*114 io_out[9]
*115 la_data_in[0]
*116 la_data_in[10]
*117 la_data_in[11]
*118 la_data_in[12]
*119 la_data_in[13]
*120 la_data_in[14]
*121 la_data_in[15]
*122 la_data_in[16]
*123 la_data_in[17]
*124 la_data_in[18]
*125 la_data_in[19]
*126 la_data_in[1]
*127 la_data_in[20]
*128 la_data_in[21]
*129 la_data_in[22]
*130 la_data_in[23]
*131 la_data_in[24]
*132 la_data_in[25]
*133 la_data_in[26]
*134 la_data_in[27]
*135 la_data_in[28]
*136 la_data_in[29]
*137 la_data_in[2]
*138 la_data_in[30]
*139 la_data_in[31]
*140 la_data_in[32]
*141 la_data_in[33]
*142 la_data_in[34]
*143 la_data_in[35]
*144 la_data_in[36]
*145 la_data_in[37]
*146 la_data_in[38]
*147 la_data_in[39]
*148 la_data_in[3]
*149 la_data_in[40]
*150 la_data_in[41]
*151 la_data_in[42]
*152 la_data_in[43]
*153 la_data_in[44]
*154 la_data_in[45]
*155 la_data_in[46]
*156 la_data_in[47]
*157 la_data_in[48]
*158 la_data_in[49]
*159 la_data_in[4]
*160 la_data_in[50]
*161 la_data_in[51]
*162 la_data_in[52]
*163 la_data_in[53]
*164 la_data_in[54]
*165 la_data_in[55]
*166 la_data_in[56]
*167 la_data_in[57]
*168 la_data_in[58]
*169 la_data_in[59]
*170 la_data_in[5]
*171 la_data_in[60]
*172 la_data_in[61]
*173 la_data_in[62]
*174 la_data_in[63]
*175 la_data_in[6]
*176 la_data_in[7]
*177 la_data_in[8]
*178 la_data_in[9]
*179 la_data_out[0]
*180 la_data_out[10]
*181 la_data_out[11]
*182 la_data_out[12]
*183 la_data_out[13]
*184 la_data_out[14]
*185 la_data_out[15]
*186 la_data_out[16]
*187 la_data_out[17]
*188 la_data_out[18]
*189 la_data_out[19]
*190 la_data_out[1]
*191 la_data_out[20]
*192 la_data_out[21]
*193 la_data_out[22]
*194 la_data_out[23]
*195 la_data_out[24]
*196 la_data_out[25]
*197 la_data_out[26]
*198 la_data_out[27]
*199 la_data_out[28]
*200 la_data_out[29]
*201 la_data_out[2]
*202 la_data_out[30]
*203 la_data_out[31]
*204 la_data_out[32]
*205 la_data_out[33]
*206 la_data_out[34]
*207 la_data_out[35]
*208 la_data_out[36]
*209 la_data_out[37]
*210 la_data_out[38]
*211 la_data_out[39]
*212 la_data_out[3]
*213 la_data_out[40]
*214 la_data_out[41]
*215 la_data_out[42]
*216 la_data_out[43]
*217 la_data_out[44]
*218 la_data_out[45]
*219 la_data_out[46]
*220 la_data_out[47]
*221 la_data_out[48]
*222 la_data_out[49]
*223 la_data_out[4]
*224 la_data_out[50]
*225 la_data_out[51]
*226 la_data_out[52]
*227 la_data_out[53]
*228 la_data_out[54]
*229 la_data_out[55]
*230 la_data_out[56]
*231 la_data_out[57]
*232 la_data_out[58]
*233 la_data_out[59]
*234 la_data_out[5]
*235 la_data_out[60]
*236 la_data_out[61]
*237 la_data_out[62]
*238 la_data_out[63]
*239 la_data_out[6]
*240 la_data_out[7]
*241 la_data_out[8]
*242 la_data_out[9]
*243 la_oenb[0]
*244 la_oenb[10]
*245 la_oenb[11]
*246 la_oenb[12]
*247 la_oenb[13]
*248 la_oenb[14]
*249 la_oenb[15]
*250 la_oenb[16]
*251 la_oenb[17]
*252 la_oenb[18]
*253 la_oenb[19]
*254 la_oenb[1]
*255 la_oenb[20]
*256 la_oenb[21]
*257 la_oenb[22]
*258 la_oenb[23]
*259 la_oenb[24]
*260 la_oenb[25]
*261 la_oenb[26]
*262 la_oenb[27]
*263 la_oenb[28]
*264 la_oenb[29]
*265 la_oenb[2]
*266 la_oenb[30]
*267 la_oenb[31]
*268 la_oenb[32]
*269 la_oenb[33]
*270 la_oenb[34]
*271 la_oenb[35]
*272 la_oenb[36]
*273 la_oenb[37]
*274 la_oenb[38]
*275 la_oenb[39]
*276 la_oenb[3]
*277 la_oenb[40]
*278 la_oenb[41]
*279 la_oenb[42]
*280 la_oenb[43]
*281 la_oenb[44]
*282 la_oenb[45]
*283 la_oenb[46]
*284 la_oenb[47]
*285 la_oenb[48]
*286 la_oenb[49]
*287 la_oenb[4]
*288 la_oenb[50]
*289 la_oenb[51]
*290 la_oenb[52]
*291 la_oenb[53]
*292 la_oenb[54]
*293 la_oenb[55]
*294 la_oenb[56]
*295 la_oenb[57]
*296 la_oenb[58]
*297 la_oenb[59]
*298 la_oenb[5]
*299 la_oenb[60]
*300 la_oenb[61]
*301 la_oenb[62]
*302 la_oenb[63]
*303 la_oenb[6]
*304 la_oenb[7]
*305 la_oenb[8]
*306 la_oenb[9]
*307 user_clock2
*308 user_irq[0]
*309 user_irq[1]
*310 user_irq[2]
*313 wb_clk_i
*314 wb_rst_i
*315 wbs_ack_o
*316 wbs_adr_i[0]
*317 wbs_adr_i[10]
*318 wbs_adr_i[11]
*319 wbs_adr_i[12]
*320 wbs_adr_i[13]
*321 wbs_adr_i[14]
*322 wbs_adr_i[15]
*323 wbs_adr_i[16]
*324 wbs_adr_i[17]
*325 wbs_adr_i[18]
*326 wbs_adr_i[19]
*327 wbs_adr_i[1]
*328 wbs_adr_i[20]
*329 wbs_adr_i[21]
*330 wbs_adr_i[22]
*331 wbs_adr_i[23]
*332 wbs_adr_i[24]
*333 wbs_adr_i[25]
*334 wbs_adr_i[26]
*335 wbs_adr_i[27]
*336 wbs_adr_i[28]
*337 wbs_adr_i[29]
*338 wbs_adr_i[2]
*339 wbs_adr_i[30]
*340 wbs_adr_i[31]
*341 wbs_adr_i[3]
*342 wbs_adr_i[4]
*343 wbs_adr_i[5]
*344 wbs_adr_i[6]
*345 wbs_adr_i[7]
*346 wbs_adr_i[8]
*347 wbs_adr_i[9]
*348 wbs_cyc_i
*349 wbs_dat_i[0]
*350 wbs_dat_i[10]
*351 wbs_dat_i[11]
*352 wbs_dat_i[12]
*353 wbs_dat_i[13]
*354 wbs_dat_i[14]
*355 wbs_dat_i[15]
*356 wbs_dat_i[16]
*357 wbs_dat_i[17]
*358 wbs_dat_i[18]
*359 wbs_dat_i[19]
*360 wbs_dat_i[1]
*361 wbs_dat_i[20]
*362 wbs_dat_i[21]
*363 wbs_dat_i[22]
*364 wbs_dat_i[23]
*365 wbs_dat_i[24]
*366 wbs_dat_i[25]
*367 wbs_dat_i[26]
*368 wbs_dat_i[27]
*369 wbs_dat_i[28]
*370 wbs_dat_i[29]
*371 wbs_dat_i[2]
*372 wbs_dat_i[30]
*373 wbs_dat_i[31]
*374 wbs_dat_i[3]
*375 wbs_dat_i[4]
*376 wbs_dat_i[5]
*377 wbs_dat_i[6]
*378 wbs_dat_i[7]
*379 wbs_dat_i[8]
*380 wbs_dat_i[9]
*381 wbs_dat_o[0]
*382 wbs_dat_o[10]
*383 wbs_dat_o[11]
*384 wbs_dat_o[12]
*385 wbs_dat_o[13]
*386 wbs_dat_o[14]
*387 wbs_dat_o[15]
*388 wbs_dat_o[16]
*389 wbs_dat_o[17]
*390 wbs_dat_o[18]
*391 wbs_dat_o[19]
*392 wbs_dat_o[1]
*393 wbs_dat_o[20]
*394 wbs_dat_o[21]
*395 wbs_dat_o[22]
*396 wbs_dat_o[23]
*397 wbs_dat_o[24]
*398 wbs_dat_o[25]
*399 wbs_dat_o[26]
*400 wbs_dat_o[27]
*401 wbs_dat_o[28]
*402 wbs_dat_o[29]
*403 wbs_dat_o[2]
*404 wbs_dat_o[30]
*405 wbs_dat_o[31]
*406 wbs_dat_o[3]
*407 wbs_dat_o[4]
*408 wbs_dat_o[5]
*409 wbs_dat_o[6]
*410 wbs_dat_o[7]
*411 wbs_dat_o[8]
*412 wbs_dat_o[9]
*413 wbs_sel_i[0]
*414 wbs_sel_i[1]
*415 wbs_sel_i[2]
*416 wbs_sel_i[3]
*417 wbs_stb_i
*418 wbs_we_i
*419 mprj

*PORTS
io_in[0] I
io_in[10] I
io_in[11] I
io_in[12] I
io_in[13] I
io_in[14] I
io_in[15] I
io_in[16] I
io_in[17] I
io_in[18] I
io_in[19] I
io_in[1] I
io_in[20] I
io_in[21] I
io_in[22] I
io_in[23] I
io_in[24] I
io_in[25] I
io_in[26] I
io_in[27] I
io_in[28] I
io_in[29] I
io_in[2] I
io_in[30] I
io_in[31] I
io_in[32] I
io_in[33] I
io_in[34] I
io_in[35] I
io_in[36] I
io_in[37] I
io_in[3] I
io_in[4] I
io_in[5] I
io_in[6] I
io_in[7] I
io_in[8] I
io_in[9] I
io_oeb[0] O
io_oeb[10] O
io_oeb[11] O
io_oeb[12] O
io_oeb[13] O
io_oeb[14] O
io_oeb[15] O
io_oeb[16] O
io_oeb[17] O
io_oeb[18] O
io_oeb[19] O
io_oeb[1] O
io_oeb[20] O
io_oeb[21] O
io_oeb[22] O
io_oeb[23] O
io_oeb[24] O
io_oeb[25] O
io_oeb[26] O
io_oeb[27] O
io_oeb[28] O
io_oeb[29] O
io_oeb[2] O
io_oeb[30] O
io_oeb[31] O
io_oeb[32] O
io_oeb[33] O
io_oeb[34] O
io_oeb[35] O
io_oeb[36] O
io_oeb[37] O
io_oeb[3] O
io_oeb[4] O
io_oeb[5] O
io_oeb[6] O
io_oeb[7] O
io_oeb[8] O
io_oeb[9] O
io_out[0] O
io_out[10] O
io_out[11] O
io_out[12] O
io_out[13] O
io_out[14] O
io_out[15] O
io_out[16] O
io_out[17] O
io_out[18] O
io_out[19] O
io_out[1] O
io_out[20] O
io_out[21] O
io_out[22] O
io_out[23] O
io_out[24] O
io_out[25] O
io_out[26] O
io_out[27] O
io_out[28] O
io_out[29] O
io_out[2] O
io_out[30] O
io_out[31] O
io_out[32] O
io_out[33] O
io_out[34] O
io_out[35] O
io_out[36] O
io_out[37] O
io_out[3] O
io_out[4] O
io_out[5] O
io_out[6] O
io_out[7] O
io_out[8] O
io_out[9] O
la_data_in[0] I
la_data_in[10] I
la_data_in[11] I
la_data_in[12] I
la_data_in[13] I
la_data_in[14] I
la_data_in[15] I
la_data_in[16] I
la_data_in[17] I
la_data_in[18] I
la_data_in[19] I
la_data_in[1] I
la_data_in[20] I
la_data_in[21] I
la_data_in[22] I
la_data_in[23] I
la_data_in[24] I
la_data_in[25] I
la_data_in[26] I
la_data_in[27] I
la_data_in[28] I
la_data_in[29] I
la_data_in[2] I
la_data_in[30] I
la_data_in[31] I
la_data_in[32] I
la_data_in[33] I
la_data_in[34] I
la_data_in[35] I
la_data_in[36] I
la_data_in[37] I
la_data_in[38] I
la_data_in[39] I
la_data_in[3] I
la_data_in[40] I
la_data_in[41] I
la_data_in[42] I
la_data_in[43] I
la_data_in[44] I
la_data_in[45] I
la_data_in[46] I
la_data_in[47] I
la_data_in[48] I
la_data_in[49] I
la_data_in[4] I
la_data_in[50] I
la_data_in[51] I
la_data_in[52] I
la_data_in[53] I
la_data_in[54] I
la_data_in[55] I
la_data_in[56] I
la_data_in[57] I
la_data_in[58] I
la_data_in[59] I
la_data_in[5] I
la_data_in[60] I
la_data_in[61] I
la_data_in[62] I
la_data_in[63] I
la_data_in[6] I
la_data_in[7] I
la_data_in[8] I
la_data_in[9] I
la_data_out[0] O
la_data_out[10] O
la_data_out[11] O
la_data_out[12] O
la_data_out[13] O
la_data_out[14] O
la_data_out[15] O
la_data_out[16] O
la_data_out[17] O
la_data_out[18] O
la_data_out[19] O
la_data_out[1] O
la_data_out[20] O
la_data_out[21] O
la_data_out[22] O
la_data_out[23] O
la_data_out[24] O
la_data_out[25] O
la_data_out[26] O
la_data_out[27] O
la_data_out[28] O
la_data_out[29] O
la_data_out[2] O
la_data_out[30] O
la_data_out[31] O
la_data_out[32] O
la_data_out[33] O
la_data_out[34] O
la_data_out[35] O
la_data_out[36] O
la_data_out[37] O
la_data_out[38] O
la_data_out[39] O
la_data_out[3] O
la_data_out[40] O
la_data_out[41] O
la_data_out[42] O
la_data_out[43] O
la_data_out[44] O
la_data_out[45] O
la_data_out[46] O
la_data_out[47] O
la_data_out[48] O
la_data_out[49] O
la_data_out[4] O
la_data_out[50] O
la_data_out[51] O
la_data_out[52] O
la_data_out[53] O
la_data_out[54] O
la_data_out[55] O
la_data_out[56] O
la_data_out[57] O
la_data_out[58] O
la_data_out[59] O
la_data_out[5] O
la_data_out[60] O
la_data_out[61] O
la_data_out[62] O
la_data_out[63] O
la_data_out[6] O
la_data_out[7] O
la_data_out[8] O
la_data_out[9] O
la_oenb[0] I
la_oenb[10] I
la_oenb[11] I
la_oenb[12] I
la_oenb[13] I
la_oenb[14] I
la_oenb[15] I
la_oenb[16] I
la_oenb[17] I
la_oenb[18] I
la_oenb[19] I
la_oenb[1] I
la_oenb[20] I
la_oenb[21] I
la_oenb[22] I
la_oenb[23] I
la_oenb[24] I
la_oenb[25] I
la_oenb[26] I
la_oenb[27] I
la_oenb[28] I
la_oenb[29] I
la_oenb[2] I
la_oenb[30] I
la_oenb[31] I
la_oenb[32] I
la_oenb[33] I
la_oenb[34] I
la_oenb[35] I
la_oenb[36] I
la_oenb[37] I
la_oenb[38] I
la_oenb[39] I
la_oenb[3] I
la_oenb[40] I
la_oenb[41] I
la_oenb[42] I
la_oenb[43] I
la_oenb[44] I
la_oenb[45] I
la_oenb[46] I
la_oenb[47] I
la_oenb[48] I
la_oenb[49] I
la_oenb[4] I
la_oenb[50] I
la_oenb[51] I
la_oenb[52] I
la_oenb[53] I
la_oenb[54] I
la_oenb[55] I
la_oenb[56] I
la_oenb[57] I
la_oenb[58] I
la_oenb[59] I
la_oenb[5] I
la_oenb[60] I
la_oenb[61] I
la_oenb[62] I
la_oenb[63] I
la_oenb[6] I
la_oenb[7] I
la_oenb[8] I
la_oenb[9] I
user_clock2 I
user_irq[0] O
user_irq[1] O
user_irq[2] O
wb_clk_i I
wb_rst_i I
wbs_ack_o O
wbs_adr_i[0] I
wbs_adr_i[10] I
wbs_adr_i[11] I
wbs_adr_i[12] I
wbs_adr_i[13] I
wbs_adr_i[14] I
wbs_adr_i[15] I
wbs_adr_i[16] I
wbs_adr_i[17] I
wbs_adr_i[18] I
wbs_adr_i[19] I
wbs_adr_i[1] I
wbs_adr_i[20] I
wbs_adr_i[21] I
wbs_adr_i[22] I
wbs_adr_i[23] I
wbs_adr_i[24] I
wbs_adr_i[25] I
wbs_adr_i[26] I
wbs_adr_i[27] I
wbs_adr_i[28] I
wbs_adr_i[29] I
wbs_adr_i[2] I
wbs_adr_i[30] I
wbs_adr_i[31] I
wbs_adr_i[3] I
wbs_adr_i[4] I
wbs_adr_i[5] I
wbs_adr_i[6] I
wbs_adr_i[7] I
wbs_adr_i[8] I
wbs_adr_i[9] I
wbs_cyc_i I
wbs_dat_i[0] I
wbs_dat_i[10] I
wbs_dat_i[11] I
wbs_dat_i[12] I
wbs_dat_i[13] I
wbs_dat_i[14] I
wbs_dat_i[15] I
wbs_dat_i[16] I
wbs_dat_i[17] I
wbs_dat_i[18] I
wbs_dat_i[19] I
wbs_dat_i[1] I
wbs_dat_i[20] I
wbs_dat_i[21] I
wbs_dat_i[22] I
wbs_dat_i[23] I
wbs_dat_i[24] I
wbs_dat_i[25] I
wbs_dat_i[26] I
wbs_dat_i[27] I
wbs_dat_i[28] I
wbs_dat_i[29] I
wbs_dat_i[2] I
wbs_dat_i[30] I
wbs_dat_i[31] I
wbs_dat_i[3] I
wbs_dat_i[4] I
wbs_dat_i[5] I
wbs_dat_i[6] I
wbs_dat_i[7] I
wbs_dat_i[8] I
wbs_dat_i[9] I
wbs_dat_o[0] O
wbs_dat_o[10] O
wbs_dat_o[11] O
wbs_dat_o[12] O
wbs_dat_o[13] O
wbs_dat_o[14] O
wbs_dat_o[15] O
wbs_dat_o[16] O
wbs_dat_o[17] O
wbs_dat_o[18] O
wbs_dat_o[19] O
wbs_dat_o[1] O
wbs_dat_o[20] O
wbs_dat_o[21] O
wbs_dat_o[22] O
wbs_dat_o[23] O
wbs_dat_o[24] O
wbs_dat_o[25] O
wbs_dat_o[26] O
wbs_dat_o[27] O
wbs_dat_o[28] O
wbs_dat_o[29] O
wbs_dat_o[2] O
wbs_dat_o[30] O
wbs_dat_o[31] O
wbs_dat_o[3] O
wbs_dat_o[4] O
wbs_dat_o[5] O
wbs_dat_o[6] O
wbs_dat_o[7] O
wbs_dat_o[8] O
wbs_dat_o[9] O
wbs_sel_i[0] I
wbs_sel_i[1] I
wbs_sel_i[2] I
wbs_sel_i[3] I
wbs_stb_i I
wbs_we_i I

*D_NET *1 0.528201
*CONN
*P io_in[0] I
*I *419:io_in[0] I *D tiny_user_project
*CAP
1 io_in[0] 0.00387638
2 *419:io_in[0] 0.00237491
3 *1:14 0.0254367
4 *1:13 0.0230618
5 *1:11 0.0622359
6 *1:10 0.0661123
7 *419:io_in[0] *419:io_in[27] 0
8 *1:11 *135:12 0.0900599
9 *1:14 *120:11 0.192491
10 *1:14 *246:11 0.0625524
*RES
1 io_in[0] *1:10 39.375 
2 *1:10 *1:11 576.81 
3 *1:11 *1:13 4.5 
4 *1:13 *1:14 492.93 
5 *1:14 *419:io_in[0] 29.52 
*END

*D_NET *2 0.205868
*CONN
*P io_in[10] I
*I *419:io_in[10] I *D tiny_user_project
*CAP
1 io_in[10] 0.00473442
2 *419:io_in[10] 0.00136993
3 *2:12 0.0118233
4 *2:11 0.0104533
5 *2:9 0.0697104
6 *2:7 0.0744448
7 *419:io_in[10] *220:12 0
8 *2:12 *75:13 0.0328293
9 *2:12 *285:19 0.000502707
*RES
1 io_in[10] *2:7 37.305 
2 *2:7 *2:9 543.24 
3 *2:9 *2:11 4.5 
4 *2:11 *2:12 117.45 
5 *2:12 *419:io_in[10] 22.5 
*END

*D_NET *3 0.292458
*CONN
*P io_in[11] I
*I *419:io_in[11] I *D tiny_user_project
*CAP
1 io_in[11] 0.000363112
2 *419:io_in[11] 0.00139235
3 *3:16 0.0231506
4 *3:15 0.0217583
5 *3:13 0.0869832
6 *3:11 0.0873463
7 *419:io_in[11] *419:io_in[14] 0.00170143
8 *3:13 *45:13 0
9 *3:16 *82:13 0.0309963
10 *3:16 *141:15 0.0286508
11 *3:16 *285:19 0
12 *3:16 *287:19 0.0101154
*RES
1 io_in[11] *3:11 3.195 
2 *3:11 *3:13 582.39 
3 *3:13 *3:15 4.5 
4 *3:15 *3:16 259.65 
5 *3:16 *419:io_in[11] 25.02 
*END

*D_NET *4 0.245706
*CONN
*P io_in[12] I
*I *419:io_in[12] I *D tiny_user_project
*CAP
1 io_in[12] 0.000167227
2 *419:io_in[12] 0.000951937
3 *4:16 0.0303287
4 *4:15 0.0293768
5 *4:13 0.0738801
6 *4:11 0.0740474
7 *419:io_in[12] *419:la_oenb[28] 0
8 *4:16 *227:15 0.000739196
9 *4:16 *252:19 0.036191
10 *4:16 *306:23 2.36837e-05
*RES
1 io_in[12] *4:11 2.115 
2 *4:11 *4:13 576.81 
3 *4:13 *4:15 4.5 
4 *4:15 *4:16 265.95 
5 *4:16 *419:io_in[12] 19.44 
*END

*D_NET *5 0.30276
*CONN
*P io_in[13] I
*I *419:io_in[13] I *D tiny_user_project
*CAP
1 io_in[13] 0.0755111
2 *419:io_in[13] 0.00296319
3 *5:8 0.0386492
4 *5:7 0.035686
5 *5:5 0.0755111
6 *5:8 *70:13 0.0295377
7 *5:8 *247:11 0.0337675
8 *5:8 *265:5 0.0111348
*RES
1 io_in[13] *5:5 590.445 
2 *5:5 *5:7 4.5 
3 *5:7 *5:8 375.39 
4 *5:8 *419:io_in[13] 34.38 
*END

*D_NET *6 0.329171
*CONN
*P io_in[14] I
*I *419:io_in[14] I *D tiny_user_project
*CAP
1 io_in[14] 0.000264341
2 *419:io_in[14] 0.003467
3 *6:16 0.0467531
4 *6:15 0.0432861
5 *6:13 0.0758099
6 *6:11 0.0760742
7 *6:16 *134:11 0.0183787
8 *6:16 *192:13 0.0559567
9 *6:16 *275:11 0.00747979
10 *419:io_in[11] *419:io_in[14] 0.00170143
*RES
1 io_in[14] *6:11 2.655 
2 *6:11 *6:13 593.37 
3 *6:13 *6:15 4.5 
4 *6:15 *6:16 450.99 
5 *6:16 *419:io_in[14] 37.8 
*END

*D_NET *7 0.20783
*CONN
*P io_in[15] I
*I *419:io_in[15] I *D tiny_user_project
*CAP
1 io_in[15] 0.0414464
2 *419:io_in[15] 0.00082681
3 *7:14 0.00649752
4 *7:8 0.0612751
5 *7:7 0.0556044
6 *7:5 0.0414464
7 *7:14 *419:la_data_in[39] 0
8 *7:14 *261:24 0.000677126
9 *7:14 *379:16 5.61636e-05
*RES
1 io_in[15] *7:5 318.825 
2 *7:5 *7:7 4.5 
3 *7:7 *7:8 433.53 
4 *7:8 *7:14 47.16 
5 *7:14 *419:io_in[15] 18.6574 
*END

*D_NET *8 0.207534
*CONN
*P io_in[16] I
*I *419:io_in[16] I *D tiny_user_project
*CAP
1 io_in[16] 0.000247817
2 *419:io_in[16] 0.00119261
3 *8:22 0.00871035
4 *8:21 0.00751774
5 *8:19 0.0316237
6 *8:18 0.0316237
7 *8:16 0.0202874
8 *8:15 0.0202874
9 *8:13 0.039721
10 *8:11 0.0399688
11 *419:io_in[16] *419:io_in[6] 7.61407e-05
12 *419:io_in[16] *419:la_data_in[20] 0
13 *8:19 *142:11 0
14 *8:22 *419:io_in[6] 0.006277
*RES
1 io_in[16] *8:11 2.655 
2 *8:11 *8:13 305.37 
3 *8:13 *8:15 4.5 
4 *8:15 *8:16 158.13 
5 *8:16 *8:18 4.5 
6 *8:18 *8:19 236.25 
7 *8:19 *8:21 4.5 
8 *8:21 *8:22 59.49 
9 *8:22 *419:io_in[16] 15.525 
*END

*D_NET *9 0.13021
*CONN
*P io_in[17] I
*I *419:io_in[17] I *D tiny_user_project
*CAP
1 io_in[17] 0.00133604
2 *419:io_in[17] 0.000203993
3 *9:14 0.015579
4 *9:13 0.015375
5 *9:11 0.0480627
6 *9:10 0.0493987
7 *9:10 *46:14 0.000254726
8 *9:11 *278:13 0
*RES
1 io_in[17] *9:10 19.935 
2 *9:10 *9:11 365.31 
3 *9:11 *9:13 4.5 
4 *9:13 *9:14 114.75 
5 *9:14 *419:io_in[17] 1.305 
*END

*D_NET *10 0.121222
*CONN
*P io_in[18] I
*I *419:io_in[18] I *D tiny_user_project
*CAP
1 io_in[18] 0.0014769
2 *419:io_in[18] 0.000506455
3 *10:17 0.0144288
4 *10:16 0.0139224
5 *10:14 0.0104991
6 *10:13 0.0104991
7 *10:11 0.0321805
8 *10:10 0.0336574
9 *10:10 *16:8 0
10 *10:11 *86:11 0
11 *10:17 *419:wbs_adr_i[0] 0.00405194
*RES
1 io_in[18] *10:10 19.755 
2 *10:10 *10:11 247.05 
3 *10:11 *10:13 4.5 
4 *10:13 *10:14 82.35 
5 *10:14 *10:16 4.5 
6 *10:16 *10:17 105.39 
7 *10:17 *419:io_in[18] 12.9052 
*END

*D_NET *11 0.290008
*CONN
*P io_in[19] I
*I *419:io_in[19] I *D tiny_user_project
*CAP
1 io_in[19] 0.000178873
2 *419:io_in[19] 0.00242022
3 *11:19 0.0325817
4 *11:18 0.0301615
5 *11:16 0.0166947
6 *11:15 0.0166947
7 *11:13 0.0270344
8 *11:11 0.0272133
9 *419:io_in[19] *113:8 0.0141868
10 *419:io_in[19] *132:16 0.000608555
11 *419:io_in[19] *198:17 0.00245487
12 *419:io_in[19] *213:13 1.0415e-05
13 *11:16 *51:13 1.18575e-05
14 *11:19 *202:10 0.0414008
15 *11:19 *234:10 0.00522448
16 *11:19 *268:5 0.0731311
*RES
1 io_in[19] *11:11 2.115 
2 *11:11 *11:13 207.81 
3 *11:13 *11:15 4.5 
4 *11:15 *11:16 129.87 
5 *11:16 *11:18 4.5 
6 *11:18 *11:19 380.43 
7 *11:19 *419:io_in[19] 49.815 
*END

*D_NET *12 0.733407
*CONN
*P io_in[1] I
*I *419:io_in[1] I *D tiny_user_project
*CAP
1 io_in[1] 0.000509679
2 *419:io_in[1] 0.00322851
3 *12:11 0.0166611
4 *12:10 0.0134326
5 *12:8 0.00380641
6 *12:7 0.00431609
7 *419:io_in[1] *419:wbs_adr_i[24] 0
8 *12:8 *39:10 0
9 *12:8 *40:10 0.001906
10 *12:8 *50:16 0.191459
11 *12:8 *77:16 0.209091
12 *12:11 *29:19 0.0689293
13 *12:11 *75:16 0.0668183
14 *12:11 *224:13 0.136688
15 *12:11 *337:16 0.00250293
16 *12:11 *395:11 0.0140583
*RES
1 io_in[1] *12:7 8.505 
2 *12:7 *12:8 540.63 
3 *12:8 *12:10 4.5 
4 *12:10 *12:11 540.27 
5 *12:11 *419:io_in[1] 33.4839 
*END

*D_NET *13 0.179175
*CONN
*P io_in[20] I
*I *419:io_in[20] I *D tiny_user_project
*CAP
1 io_in[20] 0.00105188
2 *419:io_in[20] 0.000212234
3 *13:11 0.04695
4 *13:10 0.0467378
5 *13:8 0.0104053
6 *13:7 0.0114572
7 *419:io_in[20] *419:wbs_dat_i[7] 0
8 *13:8 *16:8 0.0623601
9 *13:11 *419:wbs_dat_i[7] 0
*RES
1 io_in[20] *13:7 12.645 
2 *13:7 *13:8 156.33 
3 *13:8 *13:10 4.5 
4 *13:10 *13:11 351.45 
5 *13:11 *419:io_in[20] 10.7139 
*END

*D_NET *14 0.346731
*CONN
*P io_in[21] I
*I *419:io_in[21] I *D tiny_user_project
*CAP
1 io_in[21] 0.0015263
2 *419:io_in[21] 0.000628083
3 *14:14 0.00250747
4 *14:13 0.00187939
5 *14:11 0.0762254
6 *14:10 0.0777517
7 *14:10 *16:8 0.000608821
8 *14:14 *18:19 0.0430978
9 *14:14 *26:19 0.0934982
10 *14:14 *52:8 0.0484242
11 *14:14 *401:10 0.000583477
*RES
1 io_in[21] *14:10 22.635 
2 *14:10 *14:11 579.15 
3 *14:11 *14:13 4.5 
4 *14:13 *14:14 237.15 
5 *14:14 *419:io_in[21] 8.325 
*END

*D_NET *15 0.203688
*CONN
*P io_in[22] I
*I *419:io_in[22] I *D tiny_user_project
*CAP
1 io_in[22] 0.00485065
2 *419:io_in[22] 0.00445582
3 *15:12 0.0579373
4 *15:11 0.0534815
5 *15:9 0.0374307
6 *15:7 0.0422813
7 *419:io_in[22] *124:57 0.00325081
8 *419:io_in[22] *256:11 0
*RES
1 io_in[22] *15:7 37.305 
2 *15:7 *15:9 287.64 
3 *15:9 *15:11 4.5 
4 *15:11 *15:12 416.07 
5 *15:12 *419:io_in[22] 40.365 
*END

*D_NET *16 0.306363
*CONN
*P io_in[23] I
*I *419:io_in[23] I *D tiny_user_project
*CAP
1 io_in[23] 0.00107486
2 *419:io_in[23] 0.000969159
3 *16:11 0.0491567
4 *16:10 0.0481875
5 *16:8 0.05601
6 *16:7 0.0570848
7 *419:io_in[23] *419:wbs_dat_i[0] 0.00419174
8 *16:8 io_out[18] 0.0121251
9 *16:8 io_out[21] 0.000902427
10 *16:11 *133:19 0.0136915
11 *10:10 *16:8 0
12 *13:8 *16:8 0.0623601
13 *14:10 *16:8 0.000608821
*RES
1 io_in[23] *16:7 12.825 
2 *16:7 *16:8 532.17 
3 *16:8 *16:10 4.5 
4 *16:10 *16:11 381.33 
5 *16:11 *419:io_in[23] 15.885 
*END

*D_NET *17 0.402865
*CONN
*P io_in[24] I
*I *419:io_in[24] I *D tiny_user_project
*CAP
1 io_in[24] 0.000201168
2 *419:io_in[24] 0.00186294
3 *17:19 0.0198828
4 *17:18 0.0180198
5 *17:16 0.0767542
6 *17:15 0.0767542
7 *17:13 0.0410182
8 *17:11 0.0412194
9 *419:io_in[24] *132:13 0.00371843
10 *17:19 *47:10 0.0649702
11 *17:19 *83:10 0.0375145
12 *17:19 *104:8 0
13 *17:19 *182:16 0.0106134
14 *17:19 *353:16 0.010336
*RES
1 io_in[24] *17:11 1.935 
2 *17:11 *17:13 260.01 
3 *17:13 *17:15 4.5 
4 *17:15 *17:16 583.65 
5 *17:16 *17:18 4.5 
6 *17:18 *17:19 309.51 
7 *17:19 *419:io_in[24] 20.655 
*END

*D_NET *18 0.295503
*CONN
*P io_in[25] I
*I *419:io_in[25] I *D tiny_user_project
*CAP
1 io_in[25] 0.000125876
2 *419:io_in[25] 0.000744656
3 *18:19 0.00765022
4 *18:18 0.00690557
5 *18:16 0.0664214
6 *18:15 0.0664214
7 *18:13 0.0359284
8 *18:11 0.0360542
9 *419:io_in[25] *177:11 0
10 *18:16 *52:17 0
11 *18:19 *419:la_oenb[36] 0.000382375
12 *18:19 *26:19 0.0103157
13 *18:19 *375:20 0.0127467
14 *18:19 *376:14 0.00495988
15 *18:19 *401:10 0.00374867
16 *14:14 *18:19 0.0430978
*RES
1 io_in[25] *18:11 1.395 
2 *18:11 *18:13 227.61 
3 *18:13 *18:15 4.5 
4 *18:15 *18:16 505.71 
5 *18:16 *18:18 4.5 
6 *18:18 *18:19 188.01 
7 *18:19 *419:io_in[25] 8.505 
*END

*D_NET *19 0.166569
*CONN
*P io_in[26] I
*I *419:io_in[26] I *D tiny_user_project
*CAP
1 io_in[26] 0.00177706
2 *419:io_in[26] 0.00245847
3 *19:12 0.0343629
4 *19:11 0.0319044
5 *19:9 0.0458163
6 *19:7 0.0475934
7 *419:io_in[26] *419:wbs_stb_i 0
8 *19:9 *89:11 0
9 *19:12 *43:15 0
10 *19:12 *246:11 0.0026565
*RES
1 io_in[26] *19:7 13.185 
2 *19:7 *19:9 357.84 
3 *19:9 *19:11 4.5 
4 *19:11 *19:12 248.49 
5 *19:12 *419:io_in[26] 30.6 
*END

*D_NET *20 0.159048
*CONN
*P io_in[27] I
*I *419:io_in[27] I *D tiny_user_project
*CAP
1 io_in[27] 0.00035683
2 *419:io_in[27] 0.00414774
3 *20:16 0.0313434
4 *20:15 0.0271956
5 *20:13 0.0454733
6 *20:11 0.0458301
7 *419:io_in[27] *419:la_data_in[33] 0.0018383
8 *20:16 *143:19 0.00286231
9 *419:io_in[0] *419:io_in[27] 0
*RES
1 io_in[27] *20:11 3.015 
2 *20:11 *20:13 354.51 
3 *20:13 *20:15 4.5 
4 *20:15 *20:16 212.85 
5 *20:16 *419:io_in[27] 46.89 
*END

*D_NET *21 0.137793
*CONN
*P io_in[28] I
*I *419:io_in[28] I *D tiny_user_project
*CAP
1 io_in[28] 0.000249598
2 *419:io_in[28] 0
3 *21:30 0.00344897
4 *21:16 0.0203258
5 *21:15 0.0168769
6 *21:13 0.0447251
7 *21:11 0.0449747
8 *21:16 *223:14 0
9 *21:16 *254:11 0
10 *21:30 *419:wbs_dat_i[10] 0
11 *21:30 *350:22 0.00719204
*RES
1 io_in[28] *21:11 2.475 
2 *21:11 *21:13 349.11 
3 *21:13 *21:15 4.5 
4 *21:15 *21:16 124.11 
5 *21:16 *21:30 48.33 
6 *21:30 *419:io_in[28] 4.5 
*END

*D_NET *22 0.12785
*CONN
*P io_in[29] I
*I *419:io_in[29] I *D tiny_user_project
*CAP
1 io_in[29] 0.00192467
2 *419:io_in[29] 0.000150089
3 *22:11 0.0468803
4 *22:10 0.0467302
5 *22:8 0.0117674
6 *22:7 0.0136921
7 *419:io_in[29] *279:25 0
8 *22:11 *279:25 0.00670473
*RES
1 io_in[29] *22:7 18.765 
2 *22:7 *22:8 90.45 
3 *22:8 *22:10 4.5 
4 *22:10 *22:11 370.71 
5 *22:11 *419:io_in[29] 10.17 
*END

*D_NET *23 0.327236
*CONN
*P io_in[2] I
*I *419:io_in[2] I *D tiny_user_project
*CAP
1 io_in[2] 0.000445006
2 *419:io_in[2] 0.000241906
3 *23:11 0.0453843
4 *23:10 0.0451424
5 *23:8 0.00737091
6 *23:7 0.00781591
7 *23:8 *32:8 0.0295863
8 *23:8 *39:10 0.000613175
9 *23:8 *40:10 0.0307734
10 *23:8 *42:11 0.0881048
11 *23:8 *50:16 0.0667552
12 *23:8 *99:10 0.00500273
13 *23:11 *112:62 0
*RES
1 io_in[2] *23:7 7.965 
2 *23:7 *23:8 454.95 
3 *23:8 *23:10 4.5 
4 *23:10 *23:11 343.71 
5 *23:11 *419:io_in[2] 1.305 
*END

*D_NET *24 0.210021
*CONN
*P io_in[30] I
*I *419:io_in[30] I *D tiny_user_project
*CAP
1 io_in[30] 0.000113196
2 *419:io_in[30] 6.36767e-05
3 *24:19 0.0116418
4 *24:18 0.0115782
5 *24:16 0.02141
6 *24:15 0.02141
7 *24:13 0.0415005
8 *24:11 0.0416137
9 *24:16 *404:13 0
10 *24:19 *58:8 0.00399668
11 *24:19 *101:5 0.0116357
12 *24:19 *101:11 0.00159291
13 *24:19 *101:13 0.0033796
14 *24:19 *111:16 0
15 *24:19 *114:8 0.0164582
16 *24:19 *181:16 0.0054179
17 *24:19 *286:25 0.00138694
18 *24:19 *391:7 0.00106773
19 *24:19 *391:11 0.015754
*RES
1 io_in[30] *24:11 1.395 
2 *24:11 *24:13 319.41 
3 *24:13 *24:15 4.5 
4 *24:15 *24:16 161.91 
5 *24:16 *24:18 4.5 
6 *24:18 *24:19 212.85 
7 *24:19 *419:io_in[30] 4.905 
*END

*D_NET *25 0.102207
*CONN
*P io_in[31] I
*I *419:io_in[31] I *D tiny_user_project
*CAP
1 io_in[31] 0.00177706
2 *419:io_in[31] 0.000222568
3 *25:9 0.0493262
4 *25:7 0.0508807
*RES
1 io_in[31] *25:7 13.185 
2 *25:7 *25:9 372.06 
3 *25:9 *419:io_in[31] 10.8 
*END

*D_NET *26 0.250594
*CONN
*P io_in[32] I
*I *419:io_in[32] I *D tiny_user_project
*CAP
1 io_in[32] 0.000323383
2 *419:io_in[32] 0.000589139
3 *26:19 0.0208708
4 *26:18 0.0239552
5 *26:13 0.0362086
6 *26:11 0.0328584
7 *26:13 *351:18 0
8 *26:19 *419:la_data_in[8] 0
9 *26:19 *42:8 0.0205244
10 *26:19 *52:8 0.00119545
11 *26:19 *52:14 0
12 *26:19 *62:8 0
13 *26:19 *113:8 0.0102548
14 *14:14 *26:19 0.0934982
15 *18:19 *26:19 0.0103157
*RES
1 io_in[32] *26:11 3.015 
2 *26:11 *26:13 249.21 
3 *26:13 *26:18 36.45 
4 *26:18 *26:19 326.25 
5 *26:19 *419:io_in[32] 8.145 
*END

*D_NET *27 0.124535
*CONN
*P io_in[33] I
*I *419:io_in[33] I *D tiny_user_project
*CAP
1 io_in[33] 0.000242542
2 *419:io_in[33] 0.00224424
3 *27:16 0.00999418
4 *27:15 0.00774994
5 *27:13 0.0484737
6 *27:11 0.0487163
7 *419:io_in[33] *419:wbs_adr_i[14] 0
8 *419:io_in[33] *321:16 0.00336757
9 *27:13 *329:14 0
10 *27:13 *372:16 0
11 *27:13 *403:11 0
12 *27:16 *70:13 0.0037466
13 *27:16 *134:11 0
*RES
1 io_in[33] *27:11 2.475 
2 *27:11 *27:13 365.31 
3 *27:13 *27:15 4.5 
4 *27:15 *27:16 65.25 
5 *27:16 *419:io_in[33] 36.27 
*END

*D_NET *28 0.266981
*CONN
*P io_in[34] I
*I *419:io_in[34] I *D tiny_user_project
*CAP
1 io_in[34] 0.000177869
2 *419:io_in[34] 0.000278421
3 *28:19 0.0120918
4 *28:18 0.0118134
5 *28:16 0.0211279
6 *28:15 0.0211279
7 *28:13 0.039418
8 *28:11 0.0395959
9 *28:13 *338:16 0
10 *28:16 *335:11 0.12135
*RES
1 io_in[34] *28:11 1.935 
2 *28:11 *28:13 297.99 
3 *28:13 *28:15 4.5 
4 *28:15 *28:16 310.59 
5 *28:16 *28:18 4.5 
6 *28:18 *28:19 87.03 
7 *28:19 *419:io_in[34] 11.25 
*END

*D_NET *29 0.384012
*CONN
*P io_in[35] I
*I *419:io_in[35] I *D tiny_user_project
*CAP
1 io_in[35] 0.00303436
2 *419:io_in[35] 0.00333019
3 *29:19 0.0438173
4 *29:18 0.0404871
5 *29:16 0.0548571
6 *29:15 0.0578914
7 *419:io_in[35] *419:la_oenb[57] 0
8 *29:16 wbs_ack_o 0
9 *29:19 *75:16 0.0829984
10 *29:19 *395:11 0.0286666
11 *29:19 *402:13 0
12 *12:11 *29:19 0.0689293
*RES
1 io_in[35] *29:15 28.305 
2 *29:15 *29:16 421.47 
3 *29:16 *29:18 4.5 
4 *29:18 *29:19 563.13 
5 *29:19 *419:io_in[35] 33.3039 
*END

*D_NET *30 0.483734
*CONN
*P io_in[36] I
*I *419:io_in[36] I *D tiny_user_project
*CAP
1 io_in[36] 0.00177706
2 *419:io_in[36] 0.00374129
3 *30:12 0.011217
4 *30:11 0.0074757
5 *30:9 0.0827516
6 *30:7 0.0845286
7 *419:io_in[36] *419:wbs_dat_i[0] 0
8 *30:9 *124:23 0
9 *30:12 *69:10 0.130876
10 *30:12 *84:10 0
11 *30:12 *180:10 0.142832
12 *30:12 *349:19 0.0185348
*RES
1 io_in[36] *30:7 13.185 
2 *30:7 *30:9 621.36 
3 *30:9 *30:11 4.5 
4 *30:11 *30:12 442.89 
5 *30:12 *419:io_in[36] 30.915 
*END

*D_NET *31 0.448207
*CONN
*P io_in[37] I
*I *419:io_in[37] I *D tiny_user_project
*CAP
1 io_in[37] 0.000323383
2 *419:io_in[37] 0.000908387
3 *31:16 0.0241829
4 *31:15 0.0232745
5 *31:13 0.0818618
6 *31:11 0.0821852
7 *31:13 *154:16 0
8 *31:13 *248:16 0
9 *31:16 *86:11 0.0665881
10 *31:16 *131:19 0.0167947
11 *31:16 *365:11 0.152088
*RES
1 io_in[37] *31:11 3.015 
2 *31:11 *31:13 615.33 
3 *31:13 *31:15 4.5 
4 *31:15 *31:16 486.81 
5 *31:16 *419:io_in[37] 10.125 
*END

*D_NET *32 0.329691
*CONN
*P io_in[3] I
*I *419:io_in[3] I *D tiny_user_project
*CAP
1 io_in[3] 0.000436234
2 *419:io_in[3] 0.000290682
3 *32:11 0.0455105
4 *32:10 0.0452198
5 *32:8 0.00800835
6 *32:7 0.00844458
7 *32:8 *33:8 0.00157962
8 *32:8 *39:10 0.00464595
9 *32:8 *42:11 0.0870501
10 *32:8 *61:10 0.00142819
11 *32:8 *99:10 0.0974903
12 *32:11 *76:9 0
13 *23:8 *32:8 0.0295863
*RES
1 io_in[3] *32:7 7.605 
2 *32:7 *32:8 388.53 
3 *32:8 *32:10 4.5 
4 *32:10 *32:11 344.07 
5 *32:11 *419:io_in[3] 1.845 
*END

*D_NET *33 0.252286
*CONN
*P io_in[4] I
*I *419:io_in[4] I *D tiny_user_project
*CAP
1 io_in[4] 0.000414463
2 *419:io_in[4] 0.000300847
3 *33:11 0.0461171
4 *33:10 0.0458162
5 *33:8 0.000423922
6 *33:7 0.000838385